Circuit: * B:\Dokumente\Studium\7. Semester\MSE - Schaltungstechnik\st_ekg\schematics\ekg_v1.asc

WARNING: Node N007 is floating.

WARNING: Less than two connections to node N007.  This node is used by C5.
Early termination of direct N-R iteration.
Direct Newton iteration failed to find .op point.  (Use ".option noopiter" to skip.)
Starting Gmin stepping
Gmin = 10
Gmin = 1.07374
vernier = 0.5
vernier = 0.25
vernier = 0.125
vernier = 0.0625
Gmin = 1.08884
vernier = 0.03125
vernier = 0.015625
Gmin = 1.03122
vernier = 0.0078125
vernier = 0.0104167
vernier = 0.00520833
Gmin = 1.01724
vernier = 0.00260417
vernier = 0.00347222
Gmin = 1.01042
vernier = 0.00173611
vernier = 0.00231481
vernier = 0.00115741
Gmin = 1.00852
vernier = 0.00154321
vernier = 0.000771604
Gmin = 1.00667
vernier = 0.00102881
vernier = 0.000514403
vernier = 0.00068587
Gmin = 1.00542
vernier = 0.000514403
vernier = 0.00068587
vernier = 0.000514402
Gmin = 1.00461
Gmin = 0
Gmin stepping failed

Starting source stepping with srcstepmethod=0
Source Step = 3.0303%
Source Step = 33.3333%
Source Step = 63.6364%
Source Step = 93.9394%
Source stepping succeeded in finding the operating point.


Date: Sat Jan 18 17:27:21 2025
Total elapsed time: 0.781 seconds.

tnom = 27
temp = 27
method = trap
totiter = 5700
traniter = 0
tranpoints = 0
accept = 0
rejected = 0
matrix size = 33
fillins = 75
solver = Normal
Matrix Compiler1:     347 opcodes
Matrix Compiler2: 5.13 KB object code size  0.4/0.7/[0.4]

