Circuit: * C:\Users\aushilfe\Documents\Schnoerr_Benedikt\th\st_ekg\ekg_v3_switch.asc

Limiting rise time of source v5 to 0.05
Limiting fall time of source v5 to 0.05
WARNING: Less than two connections to node nc_01.  This node is used by v6.
Direct Newton iteration failed to find .op point.  (Use ".option noopiter" to skip.)
Starting Gmin stepping
Gmin = 10
Gmin = 1.07374
vernier = 0.5
vernier = 0.25
vernier = 0.125
vernier = 0.0625
Gmin = 1.08884
vernier = 0.03125
vernier = 0.015625
Gmin = 1.03122
vernier = 0.0078125
vernier = 0.0104167
vernier = 0.00520833
Gmin = 1.01724
vernier = 0.00260417
vernier = 0.00347222
Gmin = 1.01042
vernier = 0.00173611
vernier = 0.00231481
vernier = 0.00115741
Gmin = 1.00852
vernier = 0.00154321
vernier = 0.000771604
Gmin = 1.00667
vernier = 0.00102881
vernier = 0.000514403
vernier = 0.00068587
Gmin = 1.00542
vernier = 0.000514403
vernier = 0.00068587
vernier = 0.000514402
Gmin = 1.00461
Gmin = 0
Gmin stepping failed

Starting source stepping with srcstepmethod=0
Source Step = 3.0303%
Source Step = 33.3333%
Source Step = 63.6364%
Source Step = 93.9394%
Source stepping succeeded in finding the operating point.


Date: Tue Nov 12 13:48:39 2024
Total elapsed time: 0.787 seconds.

tnom = 27
temp = 27
method = modified trap
totiter = 12766
traniter = 7049
tranpoints = 2236
accept = 1905
rejected = 331
matrix size = 44
fillins = 107
solver = Normal
Avg thread counts: 2.4/3.4/3.0/1.6
Matrix Compiler1: 8.95 KB object code size  4.0/2.0/[1.3]
Matrix Compiler2: 7.08 KB object code size  1.3/1.7/[1.2]

