Circuit: * C:\Users\aushilfe\Documents\Schnoerr_Benedikt\th\st_ekg\ekg_v4_jfet_switch.asc

Warning: Multiple definitions of model "2scr375p" Type: BJT
Warning: Multiple definitions of model "2sb1710" Type: BJT
Limiting rise time of source v7 to 0.25
Limiting fall time of source v7 to 0.25
Limiting rise time of source v1 to 0.25
Limiting fall time of source v1 to 0.25
WARNING: Less than two connections to node nc_01.  This node is used by v6.
Direct Newton iteration failed to find .op point.  (Use ".option noopiter" to skip.)
Starting Gmin stepping
Gmin = 10
Gmin = 1.07374
vernier = 0.5
vernier = 0.25
vernier = 0.125
vernier = 0.0625
Gmin = 1.08884
vernier = 0.03125
vernier = 0.015625
Gmin = 1.03122
vernier = 0.0078125
vernier = 0.0104167
vernier = 0.00520833
Gmin = 1.01724
vernier = 0.00260417
vernier = 0.00347222
Gmin = 1.01042
vernier = 0.00173611
vernier = 0.00231481
vernier = 0.00115741
Gmin = 1.00852
vernier = 0.00154321
vernier = 0.000771604
Gmin = 1.00667
vernier = 0.00102881
vernier = 0.000514403
vernier = 0.00068587
Gmin = 1.00542
vernier = 0.000514403
vernier = 0.00068587
vernier = 0.000514402
Gmin = 1.00461
Gmin = 0
Gmin stepping failed

Starting source stepping with srcstepmethod=0
Source Step = 3.0303%
Source Step = 33.3333%
Source Step = 63.6364%
Source Step = 93.9394%
Source stepping succeeded in finding the operating point.


Date: Tue Nov 26 10:24:09 2024
Total elapsed time: 0.638 seconds.

tnom = 27
temp = 27
method = modified trap
totiter = 8198
traniter = 2486
tranpoints = 1148
accept = 1093
rejected = 55
matrix size = 52
fillins = 120
solver = Normal
Avg thread counts: 3.2/4.6/4.5/2.6
Matrix Compiler1: 10.53 KB object code size  13.9/6.0/[2.8]
Matrix Compiler2: 7.83 KB object code size  1.5/1.6/[1.2]

